/*--------------------------------*- C++ -*----------------------------------*\
  =========                 |
  \\      /  F ield         | OpenFOAM: The Open Source CFD Toolbox
   \\    /   O peration     | Website:  https://openfoam.org
    \\  /    A nd           | Version:  dev
     \\/     M anipulation  |
\*---------------------------------------------------------------------------*/
FoamFile
{
    version     2.0;
    format      ascii;
    class       volVectorField;
    location    "0/topAir";
    object      U;
}
// * * * * * * * * * * * * * * * * * * * * * * * * * * * * * * * * * * * * * //

dimensions      [ 0 1 -1 0 0 0 0 ];

internalField   uniform ( 0 0 0 );

boundaryField
{
    maxY
    {
        type            fixedValue;
        value           uniform ( 0 0 0 );
    }
    minX
    {
        type            fixedValue;
        value           uniform ( 0.5 0 0 );
    }
    maxX
    {
        type            fixedValue;
        value           uniform ( -0.5 0 0 );
    }
    minZ
    {
        type            fixedValue;
        value           uniform ( 0 0 0 );
    }
    maxZ
    {
        type            fixedValue;
        value           uniform ( 0 0 0 );
    }
    topAir_to_rightSolid
    {
        type            fixedValue;
        value           uniform ( 0 0 0 );
    }
    topAir_to_heater
    {
        type            fixedValue;
        value           uniform ( 0 0 0 );
    }
    topAir_to_leftSolid
    {
        type            fixedValue;
        value           uniform ( 0 0 0 );
    }
}


// ************************************************************************* //
