/*--------------------------------*- C++ -*----------------------------------*\
| =========                 |                                                 |
| \\      /  F ield         | OpenFOAM: The Open Source CFD Toolbox           |
|  \\    /   O peration     | Version:  v1612+                                |
|   \\  /    A nd           | Web:      www.OpenFOAM.com                      |
|    \\/     M anipulation  |                                                 |
\*---------------------------------------------------------------------------*/
FoamFile
{
    version     2.0;
    format      ascii;
    class       labelListList;
    location    "constant/bottomAir";
    object      finalAgglom;
}
// * * * * * * * * * * * * * * * * * * * * * * * * * * * * * * * * * * * * * //


8
(

50
(
0
0
0
0
1
0
0
0
0
1
2
2
1
1
1
2
2
1
1
1
2
2
3
3
3
2
2
3
3
3
4
4
4
4
3
4
4
4
4
3
5
5
5
5
5
5
5
5
5
5
)


50
(
0
0
0
0
1
0
0
0
0
1
2
2
1
1
1
2
2
1
1
1
2
2
3
3
3
2
2
3
3
3
4
4
4
4
3
4
4
4
4
3
5
5
5
5
5
5
5
5
5
5
)


292
(
0
0
0
0
1
1
1
1
2
2
0
0
0
0
1
1
1
1
2
2
0
0
0
0
1
1
1
1
2
2
0
0
0
0
1
1
1
1
2
2
3
3
3
3
4
4
4
4
2
2
3
3
3
3
4
4
4
4
2
2
3
3
3
3
4
4
4
4
2
2
3
3
3
3
4
4
4
4
2
2
5
5
5
5
6
6
6
6
7
7
5
5
5
5
6
6
6
6
7
7
5
5
5
5
6
6
6
6
7
7
5
5
5
5
6
6
6
6
7
7
8
8
8
8
7
7
7
7
7
9
8
8
8
8
7
7
7
9
8
8
8
8
10
10
9
9
8
8
8
8
10
10
9
9
11
11
11
11
10
10
9
9
11
11
11
11
12
12
10
10
9
9
11
11
11
11
12
12
10
10
9
9
11
11
11
11
12
12
10
10
9
9
13
13
13
13
12
12
10
10
9
14
13
13
13
13
12
12
10
10
9
14
13
13
13
13
12
12
15
15
14
14
13
13
13
13
12
12
15
15
14
14
16
16
16
16
12
12
15
15
14
14
16
16
16
16
17
17
15
15
14
14
16
16
16
16
17
17
15
15
14
14
16
16
16
16
17
17
15
15
14
14
17
17
17
17
17
17
15
15
14
14
17
17
17
17
17
17
15
15
14
14
)


150
(
0
0
1
1
2
0
0
1
1
2
0
0
1
1
2
0
0
1
1
2
3
3
4
4
2
3
3
4
4
2
3
3
4
4
2
3
3
4
4
2
5
5
6
6
7
5
5
6
6
7
5
5
6
6
7
5
5
6
6
7
8
8
9
9
7
8
8
9
9
7
8
8
9
9
7
8
8
9
9
7
10
10
11
11
12
10
10
11
11
12
10
10
11
11
12
10
10
11
11
12
13
13
14
14
12
13
13
14
14
12
13
13
14
14
12
13
13
14
14
12
15
15
16
16
17
15
15
16
16
17
15
15
16
16
17
15
15
16
16
17
15
15
17
17
17
15
15
17
17
17
)


150
(
0
0
1
1
2
0
0
1
1
2
0
0
1
1
2
0
0
1
1
2
3
3
4
4
2
3
3
4
4
2
3
3
4
4
2
3
3
4
4
2
5
5
6
6
7
5
5
6
6
7
5
5
6
6
7
5
5
6
6
7
8
8
9
9
7
8
8
9
9
7
8
8
9
9
7
8
8
9
9
7
10
10
11
11
12
10
10
11
11
12
10
10
11
11
12
10
10
11
11
12
13
13
14
14
12
13
13
14
14
12
13
13
14
14
12
13
13
14
14
12
15
15
16
16
17
15
15
16
16
17
15
15
16
16
17
15
15
16
16
17
15
15
17
17
17
15
15
17
17
17
)


130
(
0
0
0
0
1
1
1
1
2
2
2
2
3
0
0
0
0
1
1
1
1
2
2
2
2
3
4
4
4
4
5
5
5
5
6
6
3
3
3
4
4
4
4
5
5
5
5
6
6
3
3
3
7
7
7
7
8
8
8
8
6
6
9
9
9
7
7
7
7
8
8
8
8
6
6
9
9
9
10
10
10
10
11
11
11
11
12
12
12
12
9
10
10
10
10
11
11
11
11
12
12
12
12
9
13
13
13
13
14
14
14
14
15
15
15
15
15
13
13
13
13
14
14
14
14
15
15
15
15
15
)


130
(
0
0
0
0
1
1
1
1
2
2
2
2
3
0
0
0
0
1
1
1
1
2
2
2
2
3
4
4
4
4
5
5
5
5
6
6
3
3
3
4
4
4
4
5
5
5
5
6
6
3
3
3
7
7
7
7
8
8
8
8
6
6
9
9
9
7
7
7
7
8
8
8
8
6
6
9
9
9
10
10
10
10
11
11
11
11
12
12
12
12
9
10
10
10
10
11
11
11
11
12
12
12
12
9
13
13
13
13
14
14
14
14
15
15
15
15
15
13
13
13
13
14
14
14
14
15
15
15
15
15
)


92
(
0
0
1
1
0
0
1
1
2
2
3
3
4
4
5
5
4
4
5
5
6
6
7
7
6
6
7
7
2
8
2
8
3
8
3
8
9
10
9
10
11
12
11
12
11
12
9
13
13
14
10
14
9
13
13
14
10
14
11
15
15
16
12
16
11
15
15
16
12
16
11
17
17
17
12
17
18
18
19
19
18
18
19
19
20
20
21
21
20
20
21
21
)

)


// ************************************************************************* //
