/*--------------------------------*- C++ -*----------------------------------*\
  =========                 |
  \\      /  F ield         | OpenFOAM: The Open Source CFD Toolbox
   \\    /   O peration     | Website:  https://openfoam.org
    \\  /    A nd           | Version:  dev
     \\/     M anipulation  |
\*---------------------------------------------------------------------------*/
FoamFile
{
    version     2.0;
    format      ascii;
    class       volScalarField;
    location    "0/bottomAir";
    object      O2;
}
// * * * * * * * * * * * * * * * * * * * * * * * * * * * * * * * * * * * * * //

dimensions      [ 0 0 0 0 0 0 0 ];

internalField   uniform 0.23;

boundaryField
{
    minX
    {
        type            zeroGradient;
        value           uniform 0;
    }
    maxX
    {
        type            zeroGradient;
        value           uniform 0;
    }
    minY
    {
        type            zeroGradient;
        value           uniform 0;
    }
    minZ
    {
        type            zeroGradient;
        value           uniform 0;
    }
    maxZ
    {
        type            zeroGradient;
        value           uniform 0;
    }
    bottomAir_to_rightSolid
    {
        type            zeroGradient;
        value           uniform 0;
    }
    bottomAir_to_leftSolid
    {
        type            zeroGradient;
        value           uniform 0;
    }
    bottomAir_to_heater
    {
        type            zeroGradient;
        value           uniform 0;
    }
}


// ************************************************************************* //
